ClearAll
Clear

!---------- Circuit Input Bus --------

New Circuit.NETWORK_CA744

~ basekv=13.8 Bus1=MT1 pu=1.02 Phases=3 MVAsc1=600e10 MVAsc3=600e10

!---------- Commercial Loadshapes Week --------
New LoadShape.COM-Type1-WE npts=1440 minterval=1 csvfile=../data/commercial_loadshapes/COM-Type1-WE.txt action = normalize
New LoadShape.COM-Type2-WE npts=1440 minterval=1 csvfile=../data/commercial_loadshapes/COM-Type2-WE.txt action = normalize
New LoadShape.COM-Type3-WE npts=1440 minterval=1 csvfile=../data/commercial_loadshapes/COM-Type3-WE.txt action = normalize
New LoadShape.COM-Type4-WE npts=1440 minterval=1 csvfile=../data/commercial_loadshapes/COM-Type4-WE.txt action = normalize
New LoadShape.COM-Type5-WE npts=1440 minterval=1 csvfile=../data/commercial_loadshapes/COM-Type5-WE.txt action = normalize
New LoadShape.COM-Type6-WE npts=1440 minterval=1 csvfile=../data/commercial_loadshapes/COM-Type6-WE.txt action = normalize
New LoadShape.COM-Type7-WE npts=1440 minterval=1 csvfile=../data/commercial_loadshapes/COM-Type7-WE.txt action = normalize
New LoadShape.COM-Type8-WE npts=1440 minterval=1 csvfile=../data/commercial_loadshapes/COM-Type8-WE.txt action = normalize
New LoadShape.COM-Type9-WE npts=1440 minterval=1 csvfile=../data/commercial_loadshapes/COM-Type9-WE.txt action = normalize
New LoadShape.COM-Type10-WE npts=1440 minterval=1 csvfile=../data/commercial_loadshapes/COM-Type10-WE.txt action = normalize

!---------- Commercial Loadshapes Saturday --------
New LoadShape.COM-Type1-SA npts=1440 minterval=1 csvfile=../data/commercial_loadshapes/COM-Type1-SA.txt action = normalize
New LoadShape.COM-Type2-SA npts=1440 minterval=1 csvfile=../data/commercial_loadshapes/COM-Type2-SA.txt action = normalize
New LoadShape.COM-Type3-SA npts=1440 minterval=1 csvfile=../data/commercial_loadshapes/COM-Type3-SA.txt action = normalize
New LoadShape.COM-Type4-SA npts=1440 minterval=1 csvfile=../data/commercial_loadshapes/COM-Type4-SA.txt action = normalize
New LoadShape.COM-Type5-SA npts=1440 minterval=1 csvfile=../data/commercial_loadshapes/COM-Type5-SA.txt action = normalize
New LoadShape.COM-Type6-SA npts=1440 minterval=1 csvfile=../data/commercial_loadshapes/COM-Type6-SA.txt action = normalize
New LoadShape.COM-Type7-SA npts=1440 minterval=1 csvfile=../data/commercial_loadshapes/COM-Type7-SA.txt action = normalize
New LoadShape.COM-Type8-SA npts=1440 minterval=1 csvfile=../data/commercial_loadshapes/COM-Type8-SA.txt action = normalize
New LoadShape.COM-Type9-SA npts=1440 minterval=1 csvfile=../data/commercial_loadshapes/COM-Type9-SA.txt action = normalize
New LoadShape.COM-Type10-SA npts=1440 minterval=1 csvfile=../data/commercial_loadshapes/COM-Type10-SA.txt action = normalize

!---------- Commercial Loadshapes Sunday --------
New LoadShape.COM-Type1-SU npts=1440 minterval=1 csvfile=../data/commercial_loadshapes/COM-Type1-SU.txt action = normalize
New LoadShape.COM-Type2-SU npts=1440 minterval=1 csvfile=../data/commercial_loadshapes/COM-Type2-SU.txt action = normalize
New LoadShape.COM-Type3-SU npts=1440 minterval=1 csvfile=../data/commercial_loadshapes/COM-Type3-SU.txt action = normalize
New LoadShape.COM-Type4-SU npts=1440 minterval=1 csvfile=../data/commercial_loadshapes/COM-Type4-SU.txt action = normalize
New LoadShape.COM-Type5-SU npts=1440 minterval=1 csvfile=../data/commercial_loadshapes/COM-Type5-SU.txt action = normalize
New LoadShape.COM-Type6-SU npts=1440 minterval=1 csvfile=../data/commercial_loadshapes/COM-Type6-SU.txt action = normalize
New LoadShape.COM-Type7-SU npts=1440 minterval=1 csvfile=../data/commercial_loadshapes/COM-Type7-SU.txt action = normalize
New LoadShape.COM-Type8-SU npts=1440 minterval=1 csvfile=../data/commercial_loadshapes/COM-Type8-SU.txt action = normalize
New LoadShape.COM-Type9-SU npts=1440 minterval=1 csvfile=../data/commercial_loadshapes/COM-Type9-SU.txt action = normalize
New LoadShape.COM-Type10-SU npts=1440 minterval=1 csvfile=../data/commercial_loadshapes/COM-Type10-SU.txt action = normalize

!---------- Residential Loadshapes Week --------
New LoadShape.RES-Type1-WE npts=1440 minterval=1 csvfile=../data/residential_loadshapes/RES-Type1-WE.txt action = normalize
New LoadShape.RES-Type2-WE npts=1440 minterval=1 csvfile=../data/residential_loadshapes/RES-Type2-WE.txt action = normalize
New LoadShape.RES-Type3-WE npts=1440 minterval=1 csvfile=../data/residential_loadshapes/RES-Type3-WE.txt action = normalize
New LoadShape.RES-Type4-WE npts=1440 minterval=1 csvfile=../data/residential_loadshapes/RES-Type4-WE.txt action = normalize
New LoadShape.RES-Type5-WE npts=1440 minterval=1 csvfile=../data/residential_loadshapes/RES-Type5-WE.txt action = normalize
New LoadShape.RES-Type6-WE npts=1440 minterval=1 csvfile=../data/residential_loadshapes/RES-Type6-WE.txt action = normalize
New LoadShape.RES-Type7-WE npts=1440 minterval=1 csvfile=../data/residential_loadshapes/RES-Type7-WE.txt action = normalize
New LoadShape.RES-Type8-WE npts=1440 minterval=1 csvfile=../data/residential_loadshapes/RES-Type8-WE.txt action = normalize
New LoadShape.RES-Type9-WE npts=1440 minterval=1 csvfile=../data/residential_loadshapes/RES-Type9-WE.txt action = normalize
New LoadShape.RES-Type10-WE npts=1440 minterval=1 csvfile=../data/residential_loadshapes/RES-Type10-WE.txt action = normalize

!---------- Residential Loadshapes Saturday --------

New LoadShape.RES-Type1-SA npts=1440 minterval=1 csvfile=../data/residential_loadshapes/RES-Type1-SA.txt action = normalize
New LoadShape.RES-Type2-SA npts=1440 minterval=1 csvfile=../data/residential_loadshapes/RES-Type2-SA.txt action = normalize
New LoadShape.RES-Type3-SA npts=1440 minterval=1 csvfile=../data/residential_loadshapes/RES-Type3-SA.txt action = normalize
New LoadShape.RES-Type4-SA npts=1440 minterval=1 csvfile=../data/residential_loadshapes/RES-Type4-SA.txt action = normalize
New LoadShape.RES-Type5-SA npts=1440 minterval=1 csvfile=../data/residential_loadshapes/RES-Type5-SA.txt action = normalize
New LoadShape.RES-Type6-SA npts=1440 minterval=1 csvfile=../data/residential_loadshapes/RES-Type6-SA.txt action = normalize
New LoadShape.RES-Type7-SA npts=1440 minterval=1 csvfile=../data/residential_loadshapes/RES-Type7-SA.txt action = normalize
New LoadShape.RES-Type8-SA npts=1440 minterval=1 csvfile=../data/residential_loadshapes/RES-Type8-SA.txt action = normalize
New LoadShape.RES-Type9-SA npts=1440 minterval=1 csvfile=../data/residential_loadshapes/RES-Type9-SA.txt action = normalize
New LoadShape.RES-Type10-SA npts=1440 minterval=1 csvfile=../data/residential_loadshapes/RES-Type10-SA.txt action = normalize

!---------- Residential Loadshapes Sunday --------

New LoadShape.RES-Type1-SU npts=1440 minterval=1 csvfile=../data/residential_loadshapes/RES-Type1-SU.txt action = normalize
New LoadShape.RES-Type2-SU npts=1440 minterval=1 csvfile=../data/residential_loadshapes/RES-Type2-SU.txt action = normalize
New LoadShape.RES-Type3-SU npts=1440 minterval=1 csvfile=../data/residential_loadshapes/RES-Type3-SU.txt action = normalize
New LoadShape.RES-Type4-SU npts=1440 minterval=1 csvfile=../data/residential_loadshapes/RES-Type4-SU.txt action = normalize
New LoadShape.RES-Type5-SU npts=1440 minterval=1 csvfile=../data/residential_loadshapes/RES-Type5-SU.txt action = normalize
New LoadShape.RES-Type6-SU npts=1440 minterval=1 csvfile=../data/residential_loadshapes/RES-Type6-SU.txt action = normalize
New LoadShape.RES-Type7-SU npts=1440 minterval=1 csvfile=../data/residential_loadshapes/RES-Type7-SU.txt action = normalize
New LoadShape.RES-Type8-SU npts=1440 minterval=1 csvfile=../data/residential_loadshapes/RES-Type8-SU.txt action = normalize
New LoadShape.RES-Type9-SU npts=1440 minterval=1 csvfile=../data/residential_loadshapes/RES-Type9-SU.txt action = normalize
New LoadShape.RES-Type10-SU npts=1440 minterval=1 csvfile=../data/residential_loadshapes/RES-Type10-SU.txt action = normalize

New LoadShape.IP npts=1440 minterval=15 csvfile=../data/street_lighting/IP.txt action = normalize


!-------------------- Voltvar Curve --------------------------------
New Xycurve.vv_curve npts=7
~ Yarray=(1.0, 1.0, 0.0, 0.0, -1.0, -1.0, -1.0)
~ Xarray=(0.0, 0.8747, 0.9304,  1.0, 1.0367, 1.0522,  2.0) ! 1%

!~ Xarray=(0.0, 0.8661, 0.9212,  1.0, 1.0472, 1.0629, 2.0)
! voltage values: (0.0, 110.0, 117.0, 127.0, 133.0, 135.0, 254.0)

!-------------------- Voltwatt Curve PV Systems --------------------------------

New XyCurve.vw_curve_pv npts=4
~ Yarray=(1.0, 1.0, 0.0, 0.0)
~ Xarray=(0.0, 1.0367, 1.0522, 2.0) ! 99%

! ~ Xarray=(0.0, 1.0472, 1.0629, 2.0)
! voltage values: (0.0, 133.0, 135.0, 254.0)


!-------------------- Voltwatt Curve EVs --------------------------------

New XyCurve.vw_curve_ev npts=4
~ Yarray=(0.0, 0.0, 1.0, 1.0)
~ Xarray=(0.0, 0.8747, 0.9304, 1.0) ! 101%


! ~ Xarray=(0.0, 0.8661, 0.9212, 1.0)
! voltage values: (0.0, 110.0, 117.0, 127.0)

!------------------Shape PV generator temperature and efficiency shapes -----------------

New XYcurve.MyPvsT npts=4 xarray=[0 25 75 100] yarray=[1.2 1 0.8 0.6]
New XYcurve.MyEff npts=4 xarray=[0.1 0.2 0.4 1] yarray=[0.86 0.9 0.93 0.97]
New Tshape.MyTemp npts=24 interval=1 temp=[25, 25, 25, 25, 25, 25, 25, 25, 35, 40, 45, 50  60 60  55 40  35  30  25 25 25 25 25 25]
New Loadshape.MyIrrad npts=24 interval=1 mult=[0 0 0 0 0 0 .1 .2 .3  .5  .8  .9  1.0  1.0  .99  .9  .7  .4  .1 0  0  0  0  0]


!------------------Shape PV generator and residential loads -----------------

New LoadShape.pv_shape_rainy npts=1440 minterval=1 csvfile=../data/irradiation_curves/pv_rainy.txt
New LoadShape.pv_shape_cloudy npts=1440 minterval=1 csvfile=../data/irradiation_curves/pv_cloudy.txt
New LoadShape.pv_shape_varied npts=1440 minterval=1 csvfile=../data/irradiation_curves/pv_varied.txt 
New Loadshape.pv_shape_sunny npts=1440 minterval=1 csvfile=../data/irradiation_curves/pv_sunny.txt

!------------Wire Data--------------

! Conductors

New Wiredata.1000000 Runits=km Rac=0.306 GMRunits=m GMRac=0.0055    Radunits=m Diam=0.01431 Emergamps=365 !4/0
New Wiredata.1000001 Runits=km Rac=0.975 GMRunits=m GMRac=0.00308   Radunits=m Diam=0.00801 Emergamps=175 !2
New Wiredata.1000002 Runits=km Rac=1.551 GMRunits=m GMRac=0.00244   Radunits=m Diam=0.00636 Emergamps=130 !4
New Wiredata.1000003 Runits=km Rac=0.732 GMRunits=m GMRac=0.01395   Radunits=m Diam=0.0279  Emergamps=80   !50mm2
New Wiredata.1000004 Runits=km Rac=0.613 GMRunits=m GMRac=0.00388   Radunits=m Diam=0.01011 Emergamps=240   !1/0
New Wiredata.1000005 Runits=km Rac=1.442 GMRunits=m GMRac=0.002334  Radunits=m Diam=0.0060  Emergamps=51  !25mm2 Fase
New Wiredata.1000006 Runits=km Rac=1.442 GMRunits=m GMRac=0.0024118 Radunits=m Diam=0.0062  Emergamps=51  !25mm2 Neutro



New Wiredata.1000007 Runits=km Rac=0.3165 GMRunits=m GMRac=0.00481    Radunits=m Diam=0.01326 Emergamps=328 !4/0 OXLIP NEXANS
New Wiredata.1000008 Runits=km Rac=0.6375 GMRunits=m GMRac=0.00339    Radunits=m Diam=0.00936 Emergamps=210 !1/0 POPPY NEXANS
New Wiredata.1000009 Runits=km Rac=1.0145 GMRunits=m GMRac=0.00269    Radunits=m Diam=0.00741 Emergamps=155 !2   IRIS  NEXANS
New Wiredata.1000010 Runits=km Rac=1.6119 GMRunits=m GMRac=0.00588    Radunits=m Diam=0.00588 Emergamps=116 !4   ROSE  NEXANS

! Isolated Conductors

New Wiredata.1000011 Runits=km Rdc=0.3424 GMRunits=m Radunits=m Diam=0.01680 Emergamps=230 !120mm2 PE fase  NEXANS/Equatorial Par
New Wiredata.1000012 Runits=km Rdc=0.5787 GMRunits=m Radunits=m Diam=0.01335 Emergamps=190 !70mm2  PE fase  NEXANS/Equatorial Par
New Wiredata.1000013 Runits=km Rdc=0.8327 GMRunits=m Radunits=m Diam=0.01140 Emergamps=152 !50mm2  PE fase  NEXANS/Equatorial Par
New Wiredata.1000014 Runits=km Rdc=1.1201 GMRunits=m Radunits=m Diam=0.01020 Emergamps=126 !35mm2  PE fase  NEXANS/Equatorial Par
New Wiredata.1000015 Runits=km Rdc=1.5390 GMRunits=m Radunits=m Diam=0.00880 Emergamps=104 !25mm2  PE fase  NEXANS/Equatorial Par

!--------------------------------------------------Conductor geometry settings------------------------------------------

New linegeometry.1-C17130402-ABCN nconds=4.000000 nphases=3.000000
~ cond=1.000000 wire=1000000 units=m x=0 h=8.8
~ cond=2.000000 wire=1000000 units=m x=0 h=8.6
~ cond=3.000000 wire=1000000 units=m x=0 h=8.4
~ cond=4.000000 wire=1000001 units=m x=0 h=9
!Reduce=Yes

New linegeometry.1-C17130410-ABCN nconds=4.000000 nphases=3.000000
~ cond=1.000000 wire=1000000 units=m x=0 h=8.8
~ cond=2.000000 wire=1000000 units=m x=0 h=8.6
~ cond=3.000000 wire=1000000 units=m x=0 h=8.4
~ cond=4.000000 wire=1000004 units=m x=0 h=9
!Reduce=Yes

New linegeometry.2-C17130402-ABCN nconds=4.000000 nphases=3.000000
~ cond=1.000000 wire=1000001 units=m x=0 h=8.8
~ cond=2.000000 wire=1000001 units=m x=0 h=8.6
~ cond=3.000000 wire=1000001 units=m x=0 h=8.4
~ cond=4.000000 wire=1000002 units=m x=0 h=9
!Reduce=Yes

New linegeometry.1-C17130401-ABCN nconds=4.000000 nphases=3.000000
~ cond=1.000000 wire=1000000 units=m x=0 h=8.8
~ cond=2.000000 wire=1000000 units=m x=0 h=8.6
~ cond=3.000000 wire=1000000 units=m x=0 h=8.4
~ cond=4.000000 wire=1000001 units=m x=0 h=9
!Reduce=Yes

New linegeometry.RAMAL nconds=4.000000 nphases=3.000000
~ cond=1.000000 wire=1000003 units=m x=0 h=5.8
~ cond=2.000000 wire=1000003 units=m x=0 h=5.6
~ cond=3.000000 wire=1000003 units=m x=0 h=5.4
~ cond=4.000000 wire=1000003 units=m x=0 h=6
Reduce=Yes

New linegeometry.RAMAL2 nconds=4.000000 nphases=3.000000
~ cond=1.000000 wire=1000005 units=m x=0 h=6.00
~ cond=2.000000 wire=1000005 units=m x=0 h=6.01
~ cond=3.000000 wire=1000005 units=m x=0 h=6.02
~ cond=4.000000 wire=1000006 units=m x=0 h=6.03
Reduce=Yes


! Geometria para condutores NUS


New linegeometry.OXLIP nconds=4.000000 nphases=3.000000
~ cond=1.000000 wire=1000007 units=m x=0 h=6.5
~ cond=2.000000 wire=1000007 units=m x=0 h=6.7
~ cond=3.000000 wire=1000007 units=m x=0 h=6.9
~ cond=4.000000 wire=1000007 units=m x=0 h=7.1
!Reduce=Yes

New linegeometry.POPPY nconds=4.000000 nphases=3.000000
~ cond=1.000000 wire=1000008 units=m x=0 h=6.5
~ cond=2.000000 wire=1000008 units=m x=0 h=6.7
~ cond=3.000000 wire=1000008 units=m x=0 h=6.9
~ cond=4.000000 wire=1000008 units=m x=0 h=7.1
!Reduce=Yes

New linegeometry.IRIS nconds=4.000000 nphases=3.000000
~ cond=1.000000 wire=1000009 units=m x=0 h=6.5
~ cond=2.000000 wire=1000009 units=m x=0 h=6.7
~ cond=3.000000 wire=1000009 units=m x=0 h=6.9
~ cond=4.000000 wire=1000009 units=m x=0 h=7.1
!Reduce=Yes

New linegeometry.ROSE nconds=4.000000 nphases=3.000000
~ cond=1.000000 wire=1000010 units=m x=0 h=6.5
~ cond=2.000000 wire=1000010 units=m x=0 h=6.7
~ cond=3.000000 wire=1000010 units=m x=0 h=6.9
~ cond=4.000000 wire=1000010 units=m x=0 h=7.1
!Reduce=Yes

!-------------------------------------Geometry for Isolated Conductors--------------------------------------------------

New linegeometry.QUAD-120 nconds=4.000000 nphases=3.000000
~ cond=1.000000 wire=1000011 units=m x=0 h=6.00
~ cond=2.000000 wire=1000011 units=m x=0 h=6.05
~ cond=3.000000 wire=1000011 units=m x=0 h=6.10
~ cond=4.000000 wire=1000012 units=m x=0 h=6.15
Reduce=Yes

New linegeometry.QUAD-70 nconds=4.000000 nphases=3.000000
~ cond=1.000000 wire=1000012 units=m x=0 h=6.00
~ cond=2.000000 wire=1000012 units=m x=0 h=6.05
~ cond=3.000000 wire=1000012 units=m x=0 h=6.10
~ cond=4.000000 wire=1000012 units=m x=0 h=6.15
Reduce=Yes

New linegeometry.QUAD-50 nconds=4.000000 nphases=3.000000
~ cond=1.000000 wire=1000013 units=m x=0 h=6.00
~ cond=2.000000 wire=1000013 units=m x=0 h=6.05
~ cond=3.000000 wire=1000013 units=m x=0 h=6.10
~ cond=4.000000 wire=1000013 units=m x=0 h=6.15
Reduce=Yes

New linegeometry.QUAD-35 nconds=4.000000 nphases=3.000000
~ cond=1.000000 wire=1000014 units=m x=0 h=6.00
~ cond=2.000000 wire=1000014 units=m x=0 h=6.05
~ cond=3.000000 wire=1000014 units=m x=0 h=6.10
~ cond=4.000000 wire=1000014 units=m x=0 h=6.15
Reduce=Yes

New linegeometry.QUAD-25 nconds=4.000000 nphases=3.000000
~ cond=1.000000 wire=1000015 units=m x=0 h=6.00
~ cond=2.000000 wire=1000015 units=m x=0 h=6.05
~ cond=3.000000 wire=1000015 units=m x=0 h=6.10
~ cond=4.000000 wire=1000015 units=m x=0 h=6.15
Reduce=Yes

New wiredata.2_AWG_CAA Diam=8.0 GMRac=0.00308 Rac=1.102 Emergamps=175
~ Runits=km Radunits=mm gmrunits=m

New wiredata.43-ABCN Diam=8.0 GMRac=0.00308 Rac=1.102 Emergamps=175 ! 2_AWG_CAA
~ Runits=km Radunits=mm gmrunits=m

New wiredata.4/0_AWG_CAA Diam=14.3 GMRac=0.0055 Rac=0.380 Emergamps=365
~ Runits=km Radunits=mm gmrunits=m

New wiredata.200041-ABCN Diam=14.3 GMRac=0.0055 Rac=0.380 Emergamps=365 ! 4/0_AWG_CAA
~ Runits=km Radunits=mm gmrunits=m

New linegeometry.Poste_4/0 nconds=4.000000 nphases=3.000000
~ cond=1.000000 wire=4/0_AWG_CAA units=m x=0 h=8.00
~ cond=2.000000 wire=4/0_AWG_CAA units=m x=0 h=8.05
~ cond=3.000000 wire=4/0_AWG_CAA units=m x=0 h=8.10
~ cond=4.000000 wire=2_AWG_CAA units=m x=0 h=8.15
Reduce=Yes

New linegeometry.Poste_2_AWG nconds=4.000000 nphases=3.000000
~ cond=1.000000 wire=2_AWG_CAA units=m x=0 h=8.00
~ cond=2.000000 wire=2_AWG_CAA units=m x=0 h=8.05
~ cond=3.000000 wire=2_AWG_CAA units=m x=0 h=8.10
~ cond=4.000000 wire=2_AWG_CAA units=m x=0 h=8.15
Reduce=Yes

New linegeometry.RAMAL22 nconds=4.000000 nphases=3.000000
~ cond=1.000000 wire=1000003 units=m x=0 h=6.1
~ cond=2.000000 wire=1000003 units=m x=0 h=6.2
~ cond=3.000000 wire=1000003 units=m x=0 h=6.3
~ cond=4.000000 wire=1000005 units=m x=0 h=6.4
Reduce=Yes

New linegeometry.QUAD-50 nconds=4.000000 nphases=3.000000
~ cond=1.000000 wire=1000013 units=m x=0 h=6.1
~ cond=2.000000 wire=1000013 units=m x=0 h=6.2
~ cond=3.000000 wire=1000013 units=m x=0 h=6.3
~ cond=4.000000 wire=1000013 units=m x=0 h=6.4
Reduce=Yes

New linegeometry.11-ABCN nconds=4.000000 nphases=3.000000
~ cond=1.000000 wire=1000002 units=m x=0 h=8.8
~ cond=2.000000 wire=1000002 units=m x=0 h=8.6
~ cond=3.000000 wire=1000002 units=m x=0 h=8.4
~ cond=4.000000 wire=1000001 units=m x=0 h=9
Reduce=Yes

New Linecode.4604-ABCN nphases=3  Units=km Emergamps=221
~ Rmatrix=[0.739464 | 0.296197 0.739464 | 0.296197 0.296197 0.739464]
~ Xmatrix=[0.292891 | 0.194992 0.292891 | 0.159408 0.194991 0.292890]
~ Cmatrix=[37.0584  |-14.2316  42.4493  |1.66964  -14.2304  37.0628  ]
~ Cmatrix=[0.000000 | 0.000000 0.000000 | 0.000000 0.000000 0.000000]

New Linecode.4504-ABCN nphases=3  Units=km Emergamps=143
~ Rmatrix=[1.266950 | 0.398811 1.266950 | 0.398811 0.398811 1.266950]
~ Xmatrix=[0.495628 | 0.396758 0.495628 | 0.361393 0.396757 0.495627]
~ Cmatrix=[0.000000 |-13.9703  41.9075  |1.47344  -13.9694  36.6425  ]
!~ Cmatrix=[0.000000 | 0.000000 0.000000 | 0.000000 0.000000 0.000000]

New Linecode.38-ABC nphases=3  Units=km Emergamps=266
~ Rmatrix=[0.326426 | 0.0579849 0.326426 | 0.0579848 0.0579849 0.326426]
~ Xmatrix=[0.930153 | 0.5279610 0.930153 | 0.4756990 0.5279610 0.930153]
~ Cmatrix=[0.000000 | 0.0000000 0.000000 | 0.0000000 0.0000000 0.000000]
!~ Cmatrix=[8.08028  |-2.55582  8.62172  |-1.46875  -2.55582  8.08028  ]

New Linecode.261-ABCN nphases=3  Units=km Emergamps=229
~ Rmatrix=[0.446382 | 0.192914 0.446382 | 0.1929140 0.192914 0.446381]
~ Xmatrix=[0.207868 | 0.112708 0.207868 | 0.0765195 0.112708 0.207867]
~ Cmatrix=[38.2072  |-15.0732  44.0314  |2.17022  -15.0716  38.2131  ]
!~ Cmatrix=[0.000000 | 0.000000 0.000000 | 0.0000000 0.000000 0.000000]

New Linecode.61-ABCN nphases=3  Units=km Emergamps=235
~ Rmatrix=[0.446382 | 0.192914 0.446382 | 0.1929140 0.192914 0.446381]
~ Xmatrix=[0.207868 | 0.112708 0.207868 | 0.0765195 0.112708 0.207867]
~ Cmatrix=[38.2072  |-15.0732  44.0314  |2.17022  -15.0716  38.2131  ]

!-----------------------------------------------------PV EV Line Code---------------------------------------------------

New Linecode.PvEvLine nphases=3 R1=0.001 X1=0.001 R0=0.001 X0=0.001 C1=0.00 C0=0.00 units=km

!-----------------------------------------------------Lines-------------------------------------------------------------

New line.1743000 		Geometry=11-ABCN Length=36.47603288 Units=m 		Bus1=C110661382	Bus2=C110659649		! 11-ABCN ok

New line.1743001 		Geometry=11-ABCN Length=32.58124931 Units=m 	Bus1=C110659973	Bus2=C110661382			! 11-ABCN  ok

New line.1743002 		Geometry=11-ABCN Length=30.39668456 Units=m 		Bus1=C110659628	Bus2=C110659973		! 11-ABCN  ok

New line.1743003 		Length=37.0317099 Units=m 	Bus1=C110661380	Bus2=C110660993 Linecode=4504-ABCN 	    	! 4504-ABCN ok

New line.1743004 		Length=38.98637617 Units=m 	Bus1=C110661081	Bus2=C110659784 Linecode=261-ABCN		! 261-ABCN ok

New line.1743005 		Geometry=11-ABCN Length=40.78884605 Units=m 	Bus1=C110660247	Bus2=C110660154		! 11-ABCN  o

New line.1743006 		Geometry=11-ABCN Length=35.50691556 Units=m 	Bus1=C110659649	Bus2=C110659732  	! 11-ABCN     o

New line.1743007 		Geometry=Poste_2_AWG Length=31.21874927 Units=m 		Bus1=C110659784	 Bus2=C110659628 	! 43-ABCN ok

New line.1743008 		Length=41.60447966 Units=m 	Bus1=C110660715 Bus2=C110661380 Linecode=4504-ABCN	! 4504-ABCN    k

New line.1743009 		Geometry=11-ABCN Length=39.92269185 Units=m 		Bus1=C110660516	 Bus2=C110660254	! 11-ABCN

New line.1743010 		Geometry=11-ABCN Length=33.04136738 Units=m 		Bus1=C110661379	 Bus2=C110659732	! 11-ABCN

New line.1743011 		Geometry=Poste_2_AWG Length=30.34002173 Units=m 		Bus1=C110661082	 Bus2=C110659785	! 43-ABCN

New line.1743012 		Geometry=11-ABCN Length=38.3023052  Units=m 		Bus1=C110661249	 Bus2=C110661378	! 11-ABCN

New line.1743013 		Length=33.3050868 Units=m 	Bus1=C110660715	 Bus2=C110661134 Linecode = 261-ABCN	! 261-ABCN

New line.1743014 		Geometry=Poste_2_AWG Length=34.95113759 Units=m 	Bus1=C110659784	 Bus2=C110661082	! 43-ABCN o

New line.1743015 		Length=33.898584 Units=m 		Bus1=C110661134	 Bus2=C110660247 Linecode = 261-ABCN	! 261-ABCN

New line.1743016  		Length=40.93029712 Units=m 	Bus1=C110661358	 Bus2=C110660715 Linecode = 261-ABCN 	! 261-ABCN

New line.1743017 		Geometry=11-ABCN Length=37.47961512 Units=m 		Bus1=C110660247	 Bus2=C110661249  	! 11-ABCN

New line.1743018 		Geometry=11-ABCN Length=34.26851496 Units=m 	Bus1=C110661378	 Bus2=C110659731 	! 11-ABCN

New line.1743019 		Geometry=11-ABCN Length=38.75626474 Units=m 		Bus1=C110660254	 Bus2=C110661379	! 11-ABCN

New line.1743020 		Geometry=11-ABCN Length=39.75725011 Units=m 		Bus1=C110660154	 Bus2=C110660516	! 11-ABCN

New line.1743021 		Length=41.37345445 Units=m 		Bus1=C110661358	 Bus2=C110661081 Linecode = 261-ABCN	! 261-ABCN  k

New line.1743022 		Geometry=11-ABCN Length=34.00781094 Units=m 		Bus1=C110661382	 Bus2=C110661519	! 11-ABCN

New line.1743023 Geometry=QUAD-50 Length=28.296 Units=m 	Bus1=C110661519 Bus2=CA744RES1 ! 10187761P

New line.1743024 Geometry=QUAD-50 Length=26.136 Units=m 	Bus1=C110660247 Bus2=CA744RES2 ! 10538645P

New line.1743025 Geometry=QUAD-50 Length=29.268 Units=m 	Bus1=C110659628 Bus2=CA744RES3 ! 13575479P

New line.1743026 Geometry=QUAD-50 Length=19.008 Units=m 	Bus1=C110661082 Bus2=CA744RES4 ! 12478321P

New line.1743027 Geometry=QUAD-50 Length=15.876 Units=m 	Bus1=C110661358 Bus2=CA744RES5 ! 10381177P

New line.1743028 Geometry=QUAD-50 Length=21.6 Units=m 		Bus1=C110660247 Bus2=CA744RES6 ! 11007937P

New line.1743029 Geometry=QUAD-50 Length=34.128 Units=m 	Bus1=C110660254 Bus2=CA744RES7 ! 11541224P

New line.1743030 Geometry=QUAD-50 Length=18.576 Units=m 	Bus1=C110659973 Bus2=CA744RES8 ! 10897483P

New line.1743031 Geometry=QUAD-50 Length=20.412 Units=m 	Bus1=C110661249 Bus2=CA744RES9 ! 11939643P

New line.1743032 Geometry=QUAD-50 Length=17.28 Units=m 		Bus1=C110661082 Bus2=CA744RES10 ! 13641242P

New line.1743033 Geometry=QUAD-50 Length=25.92 Units=m 		Bus1=C110661358 Bus2=CA744RES11 ! 10051029P

New line.1743034 Geometry=QUAD-50 Length=11.664 Units=m 	Bus1=C110659785 Bus2=CA744RES12 ! 11292950P

New line.1743035 Geometry=QUAD-50 Length=27.864 Units=m 	Bus1=C110659732 Bus2=CA744RES13 ! 11313450P

New line.1743036 Geometry=QUAD-50 Length=15.12 Units=m 		Bus1=C110661249 Bus2=CA744RES14 ! 11328083P

New line.1743037 Geometry=QUAD-50 Length=18.472 Units=m 	Bus1=C110661380 Bus2=CA744RES15 ! 14165452P

New line.1743038 Geometry=QUAD-50 Length=14.256 Units=m 	Bus1=C110660516 Bus2=CA744RES16 ! 11475450P

New line.1743039 Geometry=QUAD-50 Length=26.244 Units=m 	Bus1=C110661358 Bus2=CA744RES17 ! 13308411P

New line.1743040 Geometry=QUAD-50 Length=17.604 Units=m 	Bus1=C110659785 Bus2=CA744RES18 ! 12079133P

New line.1743041 Geometry=QUAD-50 Length=25.812 Units=m 	Bus1=C110659628 Bus2=CA744RES19 ! 10553288P

New line.1743042 Geometry=QUAD-50 Length=26.784 Units=m 	Bus1=C110659784 Bus2=CA744RES20 ! 13567190P

New line.1743043 Geometry=QUAD-50 Length=34.128 Units=m 	Bus1=C110659628 Bus2=CA744RES21 ! 13406294P

New line.1743044 Geometry=QUAD-50 Length=29.268 Units=m 	Bus1=C110660154 Bus2=CA744RES22 ! 12066589P

New line.1743045 Geometry=QUAD-50 Length=29.7 Units=m 		Bus1=C110661379 Bus2=CA744RES23 ! 13414149P

New line.1743046 Geometry=QUAD-50 Length=16.416 Units=m 	Bus1=C110661134 Bus2=CA744RES24 ! 10713528P

New line.1743047 Geometry=QUAD-50 Length=18.468 Units=m 	Bus1=C110659973 Bus2=CA744RES25 ! 10381177P

New line.1743048 Geometry=QUAD-50 Length=17.388 Units=m 	Bus1=C110659785 Bus2=CA744RES26 ! 11007937P

New line.1743049 Geometry=QUAD-50 Length=26.46 Units=m 		Bus1=C110659732 Bus2=CA744RES27 ! 11541224P

New line.1743050 Geometry=QUAD-50 Length=23.112 Units=m 	Bus1=C110660715 Bus2=CA744RES28 ! 10897483P

New line.1743051 Geometry=QUAD-50 Length=19.548 Units=m 	Bus1=C110661134 Bus2=CA744RES29 ! 11939643P

New line.1743052 Geometry=QUAD-50 Length=21.168 Units=m 	Bus1=C110661379 Bus2=CA744RES30 ! 13641242P

New line.1743053 Geometry=QUAD-50 Length=16.092 Units=m 	Bus1=C110660993 Bus2=CA744RES31 ! 10051029P

New line.1743054 Geometry=QUAD-50 Length=26.892 Units=m 	Bus1=C110661519 Bus2=CA744RES32 ! 11292950P

New line.1743055 Geometry=QUAD-50 Length=21.968 Units=m 	Bus1=C110660516 Bus2=CA744RES33 ! 11313450P

New line.1743056 Geometry=QUAD-50 Length=25.596 Units=m 	Bus1=C110659784 Bus2=CA744RES34 ! 11328083P

New line.1743057 Geometry=QUAD-50 Length=16.548 Units=m 	Bus1=C110659785 Bus2=CA744RES35 ! 14165452P

New line.1743058 Geometry=QUAD-50 Length=29.376 Units=m 	Bus1=C110659784 Bus2=CA744RES36 ! 11475450P

New line.1743059 Geometry=QUAD-50 Length=24.344 Units=m 	Bus1=C110659973 Bus2=CA744RES37 ! 13308411P

New line.1743060 Geometry=QUAD-50 Length=18.6 Units=m 		Bus1=C110661082 Bus2=CA744RES38 ! 12079133P

New line.1743061 Geometry=QUAD-50 Length=22.032 Units=m 	Bus1=C110660993 Bus2=CA744RES39 ! 10553288P

New line.1743062 Geometry=QUAD-50 Length=17.388 Units=m 	Bus1=C110659785 Bus2=CA744RES40 ! 13567190P

New line.1743063 Geometry=QUAD-50 Length=22.248 Units=m 	Bus1=C110661358 Bus2=CA744RES41 ! 13406294P

New line.1743064 Geometry=QUAD-50 Length=27.324 Units=m 	Bus1=C110661358 Bus2=CA744RES42 ! 12066589P

New line.1743065 Geometry=QUAD-50 Length=22.68 Units=m 		Bus1=C110661134 Bus2=CA744RES43 ! 13414149P

New line.1743066 Geometry=QUAD-50 Length=28.188 Units=m 	Bus1=C110661378 Bus2=CA744RES44 ! 10713528P

New line.1743067 Geometry=QUAD-50 Length=24.516 Units=m 	Bus1=C110660715 Bus2=CA744RES45 ! 11313450P

New line.1743068 Geometry=QUAD-50 Length=20.52 Units=m 		Bus1=C110659973 Bus2=CA744RES46 ! 11328083P

New line.1743069 Geometry=QUAD-50 Length=29.592 Units=m 	Bus1=C110659784 Bus2=CA744RES47 ! 14165452P

!-----------------------------------------------------EV Lines----------------------------------------------------------

New line.LINE_EV1 phases=3 length=30 units=cm linecode=PvEvLine Bus1=CA744RES1 Bus2=EVRES1
New line.LINE_EV2 phases=3 length=30 units=cm linecode=PvEvLine Bus1=CA744RES2 Bus2=EVRES2
New line.LINE_EV3 phases=3 length=30 units=cm linecode=PvEvLine Bus1=CA744RES3 Bus2=EVRES3
New line.LINE_EV4 phases=3 length=30 units=cm linecode=PvEvLine Bus1=CA744RES4 Bus2=EVRES4
New line.LINE_EV5 phases=3 length=30 units=cm linecode=PvEvLine Bus1=CA744RES5 Bus2=EVRES5
New line.LINE_EV6 phases=3 length=30 units=cm linecode=PvEvLine Bus1=CA744RES6 Bus2=EVRES6
New line.LINE_EV7 phases=3 length=30 units=cm linecode=PvEvLine Bus1=CA744RES7 Bus2=EVRES7
New line.LINE_EV8 phases=3 length=30 units=cm linecode=PvEvLine Bus1=CA744RES8 Bus2=EVRES8
New line.LINE_EV9 phases=3 length=30 units=cm linecode=PvEvLine Bus1=CA744RES9 Bus2=EVRES9
New line.LINE_EV10 phases=3 length=30 units=cm linecode=PvEvLine Bus1=CA744RES10 Bus2=EVRES10
New line.LINE_EV11 phases=3 length=30 units=cm linecode=PvEvLine Bus1=CA744RES11 Bus2=EVRES11
New line.LINE_EV12 phases=3 length=30 units=cm linecode=PvEvLine Bus1=CA744RES12 Bus2=EVRES12
New line.LINE_EV13 phases=3 length=30 units=cm linecode=PvEvLine Bus1=CA744RES13 Bus2=EVRES13
New line.LINE_EV14 phases=3 length=30 units=cm linecode=PvEvLine Bus1=CA744RES14 Bus2=EVRES14
New line.LINE_EV15 phases=3 length=30 units=cm linecode=PvEvLine Bus1=CA744RES15 Bus2=EVRES15
New line.LINE_EV16 phases=3 length=30 units=cm linecode=PvEvLine Bus1=CA744RES16 Bus2=EVRES16
New line.LINE_EV17 phases=3 length=30 units=cm linecode=PvEvLine Bus1=CA744RES17 Bus2=EVRES17
New line.LINE_EV18 phases=3 length=30 units=cm linecode=PvEvLine Bus1=CA744RES18 Bus2=EVRES18
New line.LINE_EV19 phases=3 length=30 units=cm linecode=PvEvLine Bus1=CA744RES19 Bus2=EVRES19
New line.LINE_EV20 phases=3 length=30 units=cm linecode=PvEvLine Bus1=CA744RES20 Bus2=EVRES20
New line.LINE_EV21 phases=3 length=30 units=cm linecode=PvEvLine Bus1=CA744RES21 Bus2=EVRES21
New line.LINE_EV22 phases=3 length=30 units=cm linecode=PvEvLine Bus1=CA744RES22 Bus2=EVRES22
New line.LINE_EV23 phases=3 length=30 units=cm linecode=PvEvLine Bus1=CA744RES23 Bus2=EVRES23
New line.LINE_EV24 phases=3 length=30 units=cm linecode=PvEvLine Bus1=CA744RES24 Bus2=EVRES24
New line.LINE_EV25 phases=3 length=30 units=cm linecode=PvEvLine Bus1=CA744RES25 Bus2=EVRES25
New line.LINE_EV26 phases=3 length=30 units=cm linecode=PvEvLine Bus1=CA744RES26 Bus2=EVRES26
New line.LINE_EV27 phases=3 length=30 units=cm linecode=PvEvLine Bus1=CA744RES27 Bus2=EVRES27
New line.LINE_EV28 phases=3 length=30 units=cm linecode=PvEvLine Bus1=CA744RES28 Bus2=EVRES28
New line.LINE_EV29 phases=3 length=30 units=cm linecode=PvEvLine Bus1=CA744RES29 Bus2=EVRES29